Version 4
SHEET 1 880 680
WIRE 416 -64 400 -64
WIRE 592 -64 496 -64
WIRE 400 -32 400 -64
WIRE 400 -32 368 -32
WIRE 176 16 64 16
WIRE 288 16 256 16
WIRE 304 16 288 16
WIRE 592 64 592 -64
WIRE 368 96 368 64
WIRE 64 144 64 16
WIRE 368 304 368 96
WIRE 592 304 592 144
WIRE 64 368 64 224
FLAG 592 304 0
FLAG 368 304 0
FLAG 64 368 0
FLAG 368 96 VE
FLAG 288 16 VB
FLAG 368 -32 VC
SYMBOL voltage 64 128 R0
WINDOW 123 0 0 Left 2
WINDOW 39 0 0 Left 2
SYMATTR InstName VBB
SYMATTR Value 10
SYMBOL voltage 592 48 R0
WINDOW 123 0 0 Left 2
WINDOW 39 0 0 Left 2
SYMATTR InstName VCC
SYMATTR Value 15
SYMBOL res 272 0 R90
WINDOW 0 0 56 VBottom 2
WINDOW 3 32 56 VTop 2
SYMATTR InstName RB
SYMATTR Value 22K
SYMBOL res 512 -80 R90
WINDOW 0 0 56 VBottom 2
WINDOW 3 32 56 VTop 2
SYMATTR InstName RC
SYMATTR Value 100
SYMBOL npn 304 -32 R0
SYMATTR InstName Q1
TEXT 30 392 Left 2 !.op
