Version 4
SHEET 1 880 680
WIRE 144 0 112 0
WIRE 240 0 224 0
WIRE 272 0 240 0
WIRE 416 0 352 0
WIRE 112 48 112 0
WIRE -16 144 -16 128
WIRE -16 144 -96 144
WIRE 240 144 240 0
WIRE 288 144 240 144
WIRE -96 160 -96 144
WIRE -16 160 -16 144
WIRE 416 160 416 0
WIRE 416 160 352 160
WIRE 448 160 416 160
WIRE 144 176 96 176
WIRE 240 176 208 176
WIRE 288 176 240 176
WIRE 240 208 240 176
WIRE 96 256 96 176
FLAG -96 160 0
FLAG 112 48 0
FLAG -16 48 Vcc
FLAG -16 240 Vee
FLAG 320 128 Vcc
FLAG 320 192 Vee
FLAG 96 336 0
FLAG 240 288 0
SYMBOL voltage -16 32 R0
SYMATTR InstName V1
SYMATTR Value 12
SYMBOL voltage -16 144 R0
SYMATTR InstName V2
SYMATTR Value 12
SYMBOL res 240 -16 R90
WINDOW 0 0 56 VBottom 2
WINDOW 3 32 56 VTop 2
SYMATTR InstName R2
SYMATTR Value 1K
SYMBOL res 368 -16 R90
WINDOW 0 0 56 VBottom 2
WINDOW 3 32 56 VTop 2
SYMATTR InstName R1
SYMATTR Value 2.2K
SYMBOL Opamps\\UniversalOpamp2 320 160 R0
SYMATTR InstName U1
SYMBOL res 224 192 R0
SYMATTR InstName R3
SYMATTR Value 4.7K
SYMBOL cap 208 160 R90
WINDOW 0 0 32 VBottom 2
WINDOW 3 32 32 VTop 2
SYMATTR InstName C1
SYMATTR Value 10n
SYMBOL voltage 96 240 R0
WINDOW 123 24 124 Left 2
WINDOW 39 0 0 Left 2
SYMATTR InstName V3
SYMATTR Value ""
SYMATTR Value2 AC 1 0
TEXT -120 424 Left 2 !.ac dec 1000 10 100000
