Version 4
SHEET 1 880 680
WIRE 256 -64 80 -64
WIRE 528 -64 336 -64
WIRE 400 80 288 80
WIRE 528 80 528 -64
WIRE 528 80 464 80
WIRE 80 128 80 -64
WIRE 528 160 528 80
WIRE 288 208 288 80
WIRE 80 368 80 208
WIRE 288 368 288 288
WIRE 288 368 80 368
WIRE 528 368 528 240
WIRE 528 368 288 368
FLAG 288 368 0
FLAG 528 80 A
FLAG 528 368 B
SYMBOL voltage 80 112 R0
WINDOW 123 0 0 Left 2
WINDOW 39 0 0 Left 2
SYMATTR InstName V1
SYMATTR Value 12
SYMBOL voltage 288 192 R0
WINDOW 123 24 124 Left 2
WINDOW 39 0 0 Left 2
WINDOW 3 24 44 Left 2
SYMATTR Value2 AC 2 0
SYMATTR InstName V2
SYMATTR Value SINE(0 2 1K)
SYMBOL res 352 -80 R90
WINDOW 0 0 56 VBottom 2
WINDOW 3 32 56 VTop 2
SYMATTR InstName R1
SYMATTR Value 1K
SYMBOL res 512 144 R0
SYMATTR InstName R2
SYMATTR Value 2K2
SYMBOL cap 464 64 R90
WINDOW 0 0 32 VBottom 2
WINDOW 3 32 32 VTop 2
SYMATTR InstName C1
SYMATTR Value 100n
TEXT 48 416 Left 2 !;op
