Version 4
SHEET 1 880 680
WIRE 288 80 192 80
WIRE 432 80 368 80
WIRE 592 80 432 80
WIRE 688 80 592 80
WIRE 432 128 432 80
WIRE 592 128 592 80
WIRE 192 144 192 80
WIRE 688 176 688 80
WIRE 432 256 432 192
WIRE 592 256 592 192
WIRE 192 384 192 224
WIRE 432 384 432 336
WIRE 432 384 192 384
WIRE 592 384 592 336
WIRE 592 384 432 384
WIRE 688 384 688 256
WIRE 688 384 592 384
FLAG 688 80 Vout
IOPIN 688 80 Out
FLAG 432 384 0
SYMBOL voltage 192 128 R0
WINDOW 123 0 0 Left 2
WINDOW 39 0 0 Left 2
SYMATTR InstName V1
SYMATTR Value SINE(0 5 1K)
SYMBOL voltage 432 240 R0
SYMATTR InstName V2
SYMATTR Value 15
SYMBOL voltage 592 240 R0
SYMATTR InstName V3
SYMATTR Value 0.7
SYMBOL res 384 64 R90
WINDOW 0 0 56 VBottom 2
WINDOW 3 32 56 VTop 2
SYMATTR InstName R1
SYMATTR Value 1K
SYMBOL diode 416 128 R0
SYMATTR InstName D1
SYMBOL diode 608 192 R180
WINDOW 0 24 64 Left 2
WINDOW 3 24 0 Left 2
SYMATTR InstName D2
SYMBOL res 672 160 R0
SYMATTR InstName Rload
SYMATTR Value 1K
TEXT 158 408 Left 2 !.tran 0 0.01 0 0.00001
