Version 4
SHEET 1 880 680
WIRE 64 80 0 80
WIRE 240 80 128 80
WIRE 384 80 240 80
WIRE 0 144 0 80
WIRE 240 144 240 80
WIRE 384 144 384 80
WIRE 0 256 0 224
WIRE 208 256 0 256
WIRE 240 256 240 208
WIRE 240 256 208 256
WIRE 384 256 384 224
WIRE 384 256 240 256
FLAG 208 256 0
FLAG 384 80 Vout
IOPIN 384 80 Out
SYMBOL voltage 0 128 R0
WINDOW 123 0 0 Left 2
WINDOW 39 0 0 Left 2
SYMATTR InstName V1
SYMATTR Value SINE(0 5 1K)
SYMBOL diode 64 96 R270
WINDOW 0 32 32 VTop 2
WINDOW 3 0 32 VBottom 2
SYMATTR InstName D1
SYMBOL cap 224 144 R0
SYMATTR InstName C1
SYMATTR Value 100n
SYMBOL res 368 128 R0
SYMATTR InstName Rload
SYMATTR Value {Ro}
TEXT -34 280 Left 2 !.step param Ro list 100 220 470 1K 2K2 4K7 10K 22K\n.tran 0 0.002 0 0.0001\n.op
